<?xml version="1.0" encoding="UTF-8"?>

<!-- generated on Di 30 Aug 2022 14:29:58 CEST by Eclipse SUMO netedit Version 1.6.0
<configuration xmlns:xsi="http://www.w3.org/2001/XMLSchema-instance" xsi:noNamespaceSchemaLocation="http://sumo.dlr.de/xsd/netconvertConfiguration.xsd">

    <input>
        <sumo-net-file value="/home/anjie/Desktop/omnetpp_workspace/simu5g/simulations/NR/ai4mobile_thosa/thosa_highway.net.xml"/>
    </input>

    <output>
        <output-file value="/home/anjie/Desktop/omnetpp_workspace/simu5g/simulations/NR/ai4mobile_thosa/thosa_highway.net.xml"/>
    </output>

    <processing>
        <geometry.min-radius.fix.railways value="false"/>
        <geometry.max-grade.fix value="false"/>
        <offset.disable-normalization value="true"/>
        <lefthand value="false"/>
    </processing>

    <junctions>
        <no-internal-links value="true"/>
        <no-turnarounds value="true"/>
        <junctions.corner-detail value="5"/>
        <junctions.limit-turn-speed value="5.5"/>
        <rectangular-lane-cut value="false"/>
    </junctions>

    <pedestrian>
        <walkingareas value="false"/>
    </pedestrian>

    <report>
        <aggregate-warnings value="5"/>
    </report>

</configuration>
-->

<net version="1.6" junctionCornerDetail="5" limitTurnSpeed="5.50" xmlns:xsi="http://www.w3.org/2001/XMLSchema-instance" xsi:noNamespaceSchemaLocation="http://sumo.dlr.de/xsd/net_file.xsd">

    <location netOffset="0.00,-500.00" convBoundary="0.00,0.00,1000.00,0.00" origBoundary="-10000000000.00,-10000000000.00,10000000000.00,10000000000.00" projParameter="+proj=tmerc +ellps=WGS84 +datum=WGS84 +lat_0=51 +lon_0=-2 +units=m +no_defs"/>

    <edge id="-gneE1" from="gneJ3" to="gneJ2" priority="-1" length="1000.00">
        <lane id="-gneE1_0" index="0" speed="37" length="1000.00" shape="1000.00,4.80 0.00,4.80"/>
        <lane id="-gneE1_1" index="1" speed="37" length="1000.00" shape="1000.00,1.60 0.00,1.60"/>
    </edge>
    <edge id="gneE1" from="gneJ2" to="gneJ3" priority="-1" length="1000.00">
        <lane id="gneE1_0" index="0" speed="37" length="1000.00" shape="0.00,-4.80 1000.00,-4.80"/>
        <lane id="gneE1_1" index="1" speed="37" length="1000.00" shape="0.00,-1.60 1000.00,-1.60"/>
    </edge>

    <junction id="gneJ2" type="dead_end" x="0.00" y="0.00" incLanes="-gneE1_0 -gneE1_1" intLanes="" shape="0.00,0.00 0.00,6.40 0.00,0.00"/>
    <junction id="gneJ3" type="dead_end" x="1000.00" y="0.00" incLanes="gneE1_0 gneE1_1" intLanes="" shape="1000.00,0.00 1000.00,-6.40 1000.00,0.00"/>

</net>
